// -*- C++ -*-
// File generated by PyFoam - sorry for the ugliness

FoamFile
{
 version 2.0;
 format ascii; 	
 class dictionary; 	
 object blockMeshDict; 	
}

convertToMeters 1.0;

vertices
  (
    (-3.15 -2.85 -2.75)
    (-0.45 -2.85 -2.75)
    (-0.45 -0.131948 -2.75)
    (-3.15 -0.131948 -2.75)
    (-3.15 -2.85 -0.0871191)
    (-0.45 -2.85 -0.0871191)
    (-0.45 -0.131948 -0.0871191)
    (-3.15 -0.131948 -0.0871191)
    (-0.45 0.15783 -2.75)
    (-3.15 0.15783 -2.75)
    (-0.45 0.15783 -0.00947343)
    (-3.15 0.15783 -0.00947343)
    (-0.45 2.85 -2.75)
    (-3.15 2.85 -2.75)
    (-0.45 2.85 -0.00947343)
    (-3.15 2.85 -0.00947343)
    (-3.15 -2.85 0.00947343)
    (-0.45 -2.85 0.00947343)
    (-0.45 -0.15783 0.00947343)
    (-3.15 -0.15783 0.00947343)
    (-0.45 0.131948 0.0871191)
    (-3.15 0.131948 0.0871191)
    (-0.45 2.85 0.0871191)
    (-3.15 2.85 0.0871191)
    (-3.15 -2.85 2.75)
    (-0.45 -2.85 2.75)
    (-0.45 -0.15783 2.75)
    (-3.15 -0.15783 2.75)
    (-0.45 0.131948 2.75)
    (-3.15 0.131948 2.75)
    (-0.45 2.85 2.75)
    (-3.15 2.85 2.75)
    (0.45 -2.85 -2.75)
    (0.45 -0.131948 -2.75)
    (0.45 -2.85 -0.0871191)
    (0.45 -0.131948 -0.0871191)
    (0.45 0.15783 -2.75)
    (0.45 0.15783 -0.00947343)
    (0.45 2.85 -2.75)
    (0.45 2.85 -0.00947343)
    (0.45 -2.85 0.00947343)
    (0.45 -0.15783 0.00947343)
    (0.45 0.131948 0.0871191)
    (0.45 2.85 0.0871191)
    (0.45 -2.85 2.75)
    (0.45 -0.15783 2.75)
    (0.45 0.131948 2.75)
    (0.45 2.85 2.75)
    (3.15 -2.85 -2.75)
    (3.15 -0.131948 -2.75)
    (3.15 -2.85 -0.0871191)
    (3.15 -0.131948 -0.0871191)
    (3.15 0.15783 -2.75)
    (3.15 0.15783 -0.00947343)
    (3.15 2.85 -2.75)
    (3.15 2.85 -0.00947343)
    (3.15 -2.85 0.00947343)
    (3.15 -0.15783 0.00947343)
    (3.15 0.131948 0.0871191)
    (3.15 2.85 0.0871191)
    (3.15 -2.85 2.75)
    (3.15 -0.15783 2.75)
    (3.15 0.131948 2.75)
    (3.15 2.85 2.75)
  ); 	

blocks
  (
    hex (0 1 2 3 4 5 6 7) (15 15 15) simpleGrading (0.153822 0.032466 0.008471)
    hex (3 2 8 9 7 6 10 11) (15 15 15) simpleGrading (0.153822 1.000000 0.008471)
    hex (9 8 12 13 11 10 14 15) (15 15 15) simpleGrading (0.153822 30.401000 0.008471)
    hex (4 5 6 7 16 17 18 19) (15 15 15) simpleGrading (0.153822 0.032466 1.000000)
    hex (7 6 10 11 19 18 20 21) (15 15 15) simpleGrading (0.153822 1.000000 1.000000)
    hex (11 10 14 15 21 20 22 23) (15 15 15) simpleGrading (0.153822 30.401000 1.000000)
    hex (16 17 18 19 24 25 26 27) (15 15 15) simpleGrading (0.153822 0.032466 122.201000)
    hex (19 18 20 21 27 26 28 29) (15 15 15) simpleGrading (0.153822 1.000000 122.201000)
    hex (21 20 22 23 29 28 30 31) (15 15 15) simpleGrading (0.153822 30.401000 122.201000)
    hex (1 32 33 2 5 34 35 6) (15 15 15) simpleGrading (1.000000 0.032466 0.008471)
    hex (2 33 36 8 6 35 37 10) (15 15 15) simpleGrading (1.000000 1.000000 0.008471)
    hex (8 36 38 12 10 37 39 14) (15 15 15) simpleGrading (1.000000 30.401000 0.008471)
    hex (5 34 35 6 17 40 41 18) (15 15 15) simpleGrading (1.000000 0.032466 1.000000)
    hex (10 37 39 14 20 42 43 22) (15 15 15) simpleGrading (1.000000 30.401000 1.000000)
    hex (17 40 41 18 25 44 45 26) (15 15 15) simpleGrading (1.000000 0.032466 122.201000)
    hex (18 41 42 20 26 45 46 28) (15 15 15) simpleGrading (1.000000 1.000000 122.201000)
    hex (20 42 43 22 28 46 47 30) (15 15 15) simpleGrading (1.000000 30.401000 122.201000)
    hex (32 48 49 33 34 50 51 35) (15 15 15) simpleGrading (6.501000 0.032466 0.008471)
    hex (33 49 52 36 35 51 53 37) (15 15 15) simpleGrading (6.501000 1.000000 0.008471)
    hex (36 52 54 38 37 53 55 39) (15 15 15) simpleGrading (6.501000 30.401000 0.008471)
    hex (34 50 51 35 40 56 57 41) (15 15 15) simpleGrading (6.501000 0.032466 1.000000)
    hex (35 51 53 37 41 57 58 42) (15 15 15) simpleGrading (6.501000 1.000000 1.000000)
    hex (37 53 55 39 42 58 59 43) (15 15 15) simpleGrading (6.501000 30.401000 1.000000)
    hex (40 56 57 41 44 60 61 45) (15 15 15) simpleGrading (6.501000 0.032466 122.201000)
    hex (41 57 58 42 45 61 62 46) (15 15 15) simpleGrading (6.501000 1.000000 122.201000)
    hex (42 58 59 43 46 62 63 47) (15 15 15) simpleGrading (6.501000 30.401000 122.201000)
  ); 	

boundary
  (
    HULL

    {
      faces
        (

          (
            20
            18
            6
            10
          )

          (
            41
            42
            37
            35
          )

          (
            18
            41
            35
            6
          )

          (
            42
            20
            10
            37
          )

          (
            6
            35
            37
            10
          )

          (
            20
            42
            41
            18
          )
        );
      type wall;

    }
    XMIN

    {
      faces
        (

          (
            4
            7
            3
            0
          )

          (
            7
            11
            9
            3
          )

          (
            11
            15
            13
            9
          )

          (
            16
            19
            7
            4
          )

          (
            19
            21
            11
            7
          )

          (
            21
            23
            15
            11
          )

          (
            24
            27
            19
            16
          )

          (
            27
            29
            21
            19
          )

          (
            29
            31
            23
            21
          )
        );
      type patch;

    }
    XMAX

    {
      faces
        (

          (
            51
            50
            48
            49
          )

          (
            53
            51
            49
            52
          )

          (
            55
            53
            52
            54
          )

          (
            57
            56
            50
            51
          )

          (
            58
            57
            51
            53
          )

          (
            59
            58
            53
            55
          )

          (
            61
            60
            56
            57
          )

          (
            62
            61
            57
            58
          )

          (
            63
            62
            58
            59
          )
        );
      type patch;

    }
    YMIN

    {
      faces
        (

          (
            5
            4
            0
            1
          )

          (
            17
            16
            4
            5
          )

          (
            25
            24
            16
            17
          )

          (
            34
            5
            1
            32
          )

          (
            40
            17
            5
            34
          )

          (
            44
            25
            17
            40
          )

          (
            50
            34
            32
            48
          )

          (
            56
            40
            34
            50
          )

          (
            60
            44
            40
            56
          )
        );
      type patch;

    }
    YMAX

    {
      faces
        (

          (
            15
            14
            12
            13
          )

          (
            23
            22
            14
            15
          )

          (
            31
            30
            22
            23
          )

          (
            14
            39
            38
            12
          )

          (
            22
            43
            39
            14
          )

          (
            30
            47
            43
            22
          )

          (
            39
            55
            54
            38
          )

          (
            43
            59
            55
            39
          )

          (
            47
            63
            59
            43
          )
        );
      type patch;

    }
    ZMIN

    {
      faces
        (

          (
            3
            2
            1
            0
          )

          (
            9
            8
            2
            3
          )

          (
            13
            12
            8
            9
          )

          (
            2
            33
            32
            1
          )

          (
            8
            36
            33
            2
          )

          (
            12
            38
            36
            8
          )

          (
            33
            49
            48
            32
          )

          (
            36
            52
            49
            33
          )

          (
            38
            54
            52
            36
          )
        );
      type patch;

    }
    ZMAX

    {
      faces
        (

          (
            24
            25
            26
            27
          )

          (
            27
            26
            28
            29
          )

          (
            29
            28
            30
            31
          )

          (
            25
            44
            45
            26
          )

          (
            26
            45
            46
            28
          )

          (
            28
            46
            47
            30
          )

          (
            44
            60
            61
            45
          )

          (
            45
            61
            62
            46
          )

          (
            46
            62
            63
            47
          )
        );
      type patch;

    }
  ); 	

edges
  (
  ); 	// ************************************************************************* //

