/*--------------------------------*- C++ -*----------------------------------*\
| =========                 |                                                 |
| \\      /  F ield         | OpenFOAM: The Open Source CFD Toolbox           |
|  \\    /   O peration     | Version:  2.1.x                                 |
|   \\  /    A nd           | Web:      www.OpenFOAM.org                      |
|    \\/     M anipulation  |                                                 |
\*---------------------------------------------------------------------------*/
FoamFile
{
    version     2.0;
    format      ascii;
    class       dictionary;
    location    "system";
    object      controlDict;
}
// * * * * * * * * * * * * * * * * * * * * * * * * * * * * * * * * * * * * * //

application     interDyMFoam;

startFrom       latestTime;

startTime       0;

stopAt          endTime;

endTime         6;

deltaT          0.0001;

writeControl    timeStep;

writeInterval   15;

purgeWrite      10;

writeFormat     ascii;

writePrecision  12;

writeCompression uncompressed;

timeFormat      general;

timePrecision   6;

runTimeModifiable yes;

adjustTimeStep  yes;

maxCo           0.3;
maxAlphaCo      0.1;
maxDeltaT       0.01;

libs
(
    "libOpenFOAM.so"
    "libincompressibleRASModels.so"
    "libfvMotionSolvers.so"
    "libforces.so"
);

// ************************************************************************* //
