/*--------------------------------*- C++ -*----------------------------------*\
| =========                 |                                                 |
| \\      /  F ield         | OpenFOAM: The Open Source CFD Toolbox           |
|  \\    /   O peration     | Version:  2.1.x                                 |
|   \\  /    A nd           | Web:      www.OpenFOAM.org                      |
|    \\/     M anipulation  |                                                 |
\*---------------------------------------------------------------------------*/
FoamFile
{
    version     2.0;
    format      ascii;
    class       dictionary;
    location    "system";
    object      controlDict;
}
// * * * * * * * * * * * * * * * * * * * * * * * * * * * * * * * * * * * * * //

application     interDyMFoam;

startFrom       startTime;

startTime       0;

stopAt          endTime;

endTime         5;
/*endTime         0.7;*/

deltaT          0.005;

writeControl    timeStep; //adjustableRunTime;
//writeControl    adjustableRunTime;

writeInterval   10; 

purgeWrite      0;

writeFormat     ascii;

writePrecision  12;

writeCompression uncompressed;

timeFormat      general;

timePrecision   6;

runTimeModifiable yes;

adjustTimeStep  no;
//adjustTimeStep  yes;

maxCo           0.7;
maxAlphaCo      0.5;
maxDeltaT       0.01;


functions
(
	forces
	{
		type forces;
		patches (HULL);
		rhoInf	998;
		rhoName	rho;
		UName 	U;
		log	off;
	}
);

// ************************************************************************* //
